Version 4
SHEET 1 880 680
WIRE 368 0 -64 0
WIRE 240 48 208 48
WIRE 448 48 320 48
WIRE -64 96 -64 0
WIRE 368 112 368 0
WIRE 368 112 304 112
WIRE 304 144 304 112
WIRE 80 160 48 160
WIRE 208 160 208 48
WIRE 208 160 144 160
WIRE 272 160 208 160
WIRE 288 160 272 160
WIRE 448 176 448 48
WIRE 448 176 352 176
WIRE 480 176 448 176
WIRE 48 192 48 160
WIRE 288 192 272 192
WIRE 304 224 304 208
WIRE 304 224 0 224
WIRE 160 272 112 272
WIRE 272 272 272 192
WIRE 272 272 240 272
WIRE 112 320 112 272
WIRE 272 352 272 272
WIRE 304 352 272 352
WIRE 448 352 448 176
WIRE 448 352 384 352
WIRE 0 384 0 224
FLAG 112 320 0
FLAG 48 192 0
FLAG -64 176 0
FLAG 0 464 0
FLAG 480 176 out
FLAG 272 160 neg_in
FLAG 272 192 pos_in
SYMBOL OpAmps\\LT1351 320 176 R0
SYMATTR InstName U1
SYMBOL res 400 336 R90
WINDOW 0 0 56 VBottom 2
WINDOW 3 32 56 VTop 2
SYMATTR InstName R1
SYMATTR Value 1k
SYMBOL res 256 256 R90
WINDOW 0 0 56 VBottom 2
WINDOW 3 32 56 VTop 2
SYMATTR InstName R2
SYMATTR Value 1k
SYMBOL cap 144 144 R90
WINDOW 0 0 32 VBottom 2
WINDOW 3 32 32 VTop 2
SYMATTR InstName C1
SYMATTR Value 100pF
SYMBOL res 336 32 R90
WINDOW 0 0 56 VBottom 2
WINDOW 3 32 56 VTop 2
SYMATTR InstName R3
SYMATTR Value 1k
SYMBOL voltage -64 80 R0
WINDOW 123 0 0 Left 0
WINDOW 39 0 0 Left 0
SYMATTR InstName V1
SYMATTR Value 15
SYMBOL voltage 0 368 R0
WINDOW 123 0 0 Left 0
WINDOW 39 0 0 Left 0
SYMATTR InstName V2
SYMATTR Value -15
TEXT -96 488 Left 2 !.tran 0 10ms 0 1e-6
