Version 4
SHEET 1 880 680
WIRE 336 16 112 16
WIRE 112 48 112 16
WIRE 336 176 336 16
WIRE 64 192 -16 192
WIRE 320 192 64 192
WIRE -16 208 -16 192
WIRE 496 208 384 208
WIRE 512 208 496 208
WIRE 528 208 512 208
WIRE 320 224 288 224
WIRE 336 256 336 240
WIRE 336 256 96 256
WIRE 288 320 288 224
WIRE 368 320 288 320
WIRE 496 320 496 208
WIRE 496 320 448 320
WIRE 288 352 288 320
WIRE 96 368 96 256
WIRE 288 480 288 432
FLAG -16 288 0
FLAG 288 480 0
FLAG 512 208 out
FLAG 64 192 in
FLAG 112 128 0
FLAG 96 448 0
SYMBOL OpAmps\\LT1351 352 208 R0
SYMATTR InstName U1
SYMBOL voltage -16 192 R0
WINDOW 123 0 0 Left 0
WINDOW 39 0 0 Left 0
SYMATTR InstName V1
SYMATTR Value PULSE(-2 2 0 0.0005 0.0005 0 0.001 1000)
SYMBOL res 272 336 R0
SYMATTR InstName R1
SYMATTR Value 1k
SYMBOL res 464 304 R90
WINDOW 0 0 56 VBottom 2
WINDOW 3 32 56 VTop 2
SYMATTR InstName R2
SYMATTR Value 10k
SYMBOL voltage 112 32 R0
WINDOW 123 0 0 Left 0
WINDOW 39 0 0 Left 0
SYMATTR InstName V2
SYMATTR Value 15
SYMBOL voltage 96 352 R0
WINDOW 123 0 0 Left 0
WINDOW 39 0 0 Left 0
SYMATTR InstName V3
SYMATTR Value -15
TEXT 512 448 Left 2 !.tran 0 1 0.5 1e-6
