Version 4
SHEET 1 880 680
WIRE 96 16 -144 16
WIRE -144 48 -144 16
WIRE 256 96 160 96
WIRE 368 96 336 96
WIRE 96 144 96 16
WIRE 256 144 96 144
WIRE 256 192 256 144
WIRE 240 208 208 208
WIRE -32 224 -144 224
WIRE 32 224 -32 224
WIRE 144 224 112 224
WIRE 368 224 368 96
WIRE 368 224 304 224
WIRE 400 224 368 224
WIRE 416 224 400 224
WIRE -144 240 -144 224
WIRE 144 240 144 224
WIRE 160 240 160 96
WIRE 160 240 144 240
WIRE 240 240 160 240
WIRE 208 272 208 208
WIRE 256 352 256 256
WIRE 256 352 -144 352
WIRE -144 400 -144 352
FLAG -144 320 0
FLAG -144 128 0
FLAG -144 480 0
FLAG 208 272 0
FLAG 400 224 out
FLAG -32 224 in
SYMBOL OpAmps\\LT1351 272 224 R0
SYMATTR InstName U1
SYMBOL res 128 208 R90
WINDOW 0 0 56 VBottom 2
WINDOW 3 32 56 VTop 2
SYMATTR InstName R1
SYMATTR Value 1k
SYMBOL res 352 80 R90
WINDOW 0 0 56 VBottom 2
WINDOW 3 32 56 VTop 2
SYMATTR InstName R2
SYMATTR Value 10k
SYMBOL voltage -144 224 R0
WINDOW 123 0 0 Left 0
WINDOW 39 0 0 Left 0
SYMATTR InstName V1
SYMATTR Value PULSE(-2 2 0 5e-6 5e-6 0 1e-5 1000)
SYMBOL voltage -144 32 R0
WINDOW 123 0 0 Left 0
WINDOW 39 0 0 Left 0
SYMATTR InstName V2
SYMATTR Value 15
SYMBOL voltage -144 384 R0
WINDOW 123 0 0 Left 0
WINDOW 39 0 0 Left 0
SYMATTR InstName V3
SYMATTR Value -15
TEXT -176 504 Left 2 !.tran 0 0.01 0 1e-9
